Info: SIMULATION PARAMETERS:
Info: TIMESTEP               1
Info: NUMBER OF STEPS        10000000
Info: STEPS PER CYCLE        20
Info: PERIODIC CELL BASIS 1  51.05 0 0
Info: PERIODIC CELL BASIS 2  0 51.579 0
Info: PERIODIC CELL BASIS 3  0 0 50
Info: PERIODIC CELL CENTER   0 0 0
Info: FIRST LDB TIMESTEP     100
Info: LAST LDB TIMESTEP     -1
Info: HOM BACKGROUND SCALING 1
Info: MIN ATOMS PER PATCH    40
Info: INITIAL TEMPERATURE    200
Info: CENTER OF MASS MOVING INITIALLY? NO
Info: DIELECTRIC             1
Info: EXCLUDE                SCALED ONE-FOUR
Info: 1-4 ELECTROSTATICS SCALED BY 1
Info: MODIFIED 1-4 VDW PARAMETERS WILL BE USED
Info: DCD FILENAME           ./output/cnt_abf.dcd
Info: DCD FREQUENCY          1000
Info: DCD FIRST STEP         1000
Info: DCD FILE WILL CONTAIN UNIT CELL DATA
Info: NO EXTENDED SYSTEM TRAJECTORY OUTPUT
Info: NO VELOCITY DCD OUTPUT
Info: NO FORCE DCD OUTPUT
Info: OUTPUT FILENAME        ./output/cntabf
Info: BINARY OUTPUT FILES WILL BE USED
Info: RESTART FILENAME       ./restart/cntabf
Info: RESTART FREQUENCY      10000
Info: BINARY RESTART FILES WILL BE USED
Info: SWITCHING ACTIVE
Info: SWITCHING ON           10
Info: SWITCHING OFF          12
Info: PAIRLIST DISTANCE      13.5
Info: PAIRLIST SHRINK RATE   0.01
Info: PAIRLIST GROW RATE     0.01
Info: PAIRLIST TRIGGER       0.3
Info: PAIRLISTS PER CYCLE    2
Info: PAIRLISTS ENABLED
Info: MARGIN                 0
Info: HYDROGEN GROUP CUTOFF  2.5
Info: PATCH DIMENSION        16
Info: ENERGY OUTPUT STEPS    1000
Info: CROSSTERM ENERGY INCLUDED IN DIHEDRAL
Info: TIMING OUTPUT STEPS    1000
Info: FIXED ATOMS ACTIVE
Info: HARMONIC CONSTRAINTS ACTIVE
Info: HARMONIC CONS EXP      4
Info: SELECTED CARTESIAN COMPONENTS OF HARMONIC RESTRAINTS ACTIVE
Info: RESTRAINING Z-COMPONENTS OF CARTESIAN COORDINATES!
Info: COLLECTIVE VARIABLES CALCULATION REQUESTED
Info: COLLECTIVE VARIABLES CONFIGURATION   colvars_config_custom.tcl
Info: LANGEVIN DYNAMICS ACTIVE
Info: LANGEVIN TEMPERATURE   200
Info: LANGEVIN USING BBK INTEGRATOR
Info: LANGEVIN DAMPING COEFFICIENT IS 0.5 INVERSE PS
Info: LANGEVIN DYNAMICS APPLIED TO HYDROGENS
Info: VELOCITY REASSIGNMENT FREQ  10000
Info: VELOCITY REASSIGNMENT TEMP  200
Info: USING VERLET I (r-RESPA) MTS SCHEME.
Info: C1 SPLITTING OF LONG RANGE ELECTROSTATICS
Info: PLACING ATOMS IN PATCHES BY HYDROGEN GROUPS
Info: RANDOM NUMBER SEED     1516377401
Info: USE HYDROGEN BONDS?    NO
Info: COORDINATE PDB         cnt_chains.pdb
Info: STRUCTURE FILE         cnt_chains.psf
Info: PARAMETER file: CHARMM format!
Info: PARAMETERS             cnt_test.prm
Info: USING ARITHMETIC MEAN TO COMBINE L-J SIGMA PARAMETERS
Info: SUMMARY OF PARAMETERS:
Info: 3 BONDS
Info: 0 ANGLES
Info: 0 DIHEDRAL
Info: 0 IMPROPER
Info: 0 CROSSTERM
Info: 3 VDW
Info: 0 VDW_PAIRS
Info: 0 NBTHOLE_PAIRS
Info: STRUCTURE SUMMARY:
Info: 1033 ATOMS
Info: 1467 BONDS
Info: 0 ANGLES
Info: 0 DIHEDRALS
Info: 0 IMPROPERS
Info: 0 CROSSTERMS
Info: 0 EXCLUSIONS
Info: 25 CONSTRAINTS
Info: 1008 FIXED ATOMS
Info: 75 DEGREES OF FREEDOM
Info: 1033 HYDROGEN GROUPS
Info: 1 ATOMS IN LARGEST HYDROGEN GROUP
Info: 1033 MIGRATION GROUPS
Info: 1 ATOMS IN LARGEST MIGRATION GROUP
Info: 1008 HYDROGEN GROUPS WITH ALL ATOMS FIXED
Info: TOTAL MASS = 12506.8 amu
Info: TOTAL CHARGE = 0 e
Info: MASS DENSITY = 0.157749 g/cm^3
Info: ATOM DENSITY = 0.00784624 atoms/A^3
Info: ADDED 8474 IMPLICIT EXCLUSIONS
Info: NONBONDED TABLE R-SQUARED SPACING: 0.0625
Info: NONBONDED TABLE SIZE: 769 POINTS
Info: REMOVING COM VELOCITY -0.143033 0.00453517 0.112111
Info: Updated CUDA force table with 4096 elements.
Info: Updated CUDA LJ table with 3 x 3 elements.
Info: Found 1 unique exclusion lists needing 4 bytes
Info: Built with CUDA version 8000
Info: NAMD Git-2017-12-06 for Linux-x86_64-multicore-CUDA
Info: Please visit http://www.ks.uiuc.edu/Research/namd/
Info: for updates, documentation, and support information.
Info: Please cite Phillips et al., J. Comp. Chem. 26:1781-1802 (2005)
Info: in all publications reporting results obtained with NAMD.
Info: Based on Charm++/Converse 60800 for multicore-linux64-iccstatic
Info: Built Wed Dec 6 02:09:16 CST 2017 by jim on ganymede.ks.uiuc.edu
Info: 1 NAMD  Git-2017-12-06  Linux-x86_64-multicore-CUDA  4    coe.psc.edu  junwoony
Info: Running on 4 processors, 1 nodes, 1 physical nodes.
Info: CPU topology information available.
Info: Charm++/Converse parallel runtime startup completed at 3.35044 s
Info: 10.7227 MB of memory in use based on /proc/self/stat
Info: Configuration file is cnt.namd
Info: Working in the current directory /home/junwoony/surfactant_sim/graphene_test
ETITLE: TS BOND ANGLE DIHED IMPRP ELECT VDW BOUNDARY MISC KINETIC TOTAL TEMP POTENTIAL TOTAL3 TEMPAVG PRESSURE GPRESSURE VOLUME PRESSAVG GPRESSAVG
ENERGY: 0 0.0000 0.0000 0.0000 0.0000 0.0000 -89.9842 0.0000 0.0000 16.0399 -73.9443 215.2435 -89.9842 -73.9405 215.2435 153.1399 153.1399 131655.3975 153.1399 153.1399
ENERGY: 2000 0.0000 0.0000 0.0000 0.0000 0.0000 -115.3537 0.6708 0.4592 26.9533 -87.2704 361.6940 -114.2237 -87.2173 344.6859 41.0978 41.0978 131655.3975 -4.4727 -4.4727
ENERGY: 4000 0.0000 0.0000 0.0000 0.0000 0.0000 -114.0231 1.4246 0.1471 16.1635 -96.2879 216.9026 -112.4514 -96.1460 232.0663 -9.2791 -9.2791 131655.3975 -12.5181 -12.5181
ENERGY: 5000 0.0000 0.0000 0.0000 0.0000 0.0000 -116.5245 0.8923 0.1128 14.4249 -101.0945 193.5714 -115.5194 -100.9832 241.4971 -50.6270 -50.6270 131655.3975 -26.9740 -26.9740
ENERGY: 7000 0.0000 0.0000 0.0000 0.0000 0.0000 -118.9155 0.6091 1.2990 13.3219 -103.6855 178.7704 -117.0074 -103.5388 176.8704 -50.2264 -50.2264 131655.3975 -17.6745 -17.6745
ENERGY: 9000 0.0000 0.0000 0.0000 0.0000 0.0000 -118.9056 0.6616 0.1305 17.7136 -100.4000 237.7032 -118.1135 -100.3089 240.6570 -26.0870 -26.0870 131655.3975 -1.0861 -1.0861
TCL: Suspending until startup complete.
Info: SIMULATION PARAMETERS:
Info: TIMESTEP               1
Info: NUMBER OF STEPS        10000000
Info: STEPS PER CYCLE        20
Info: PERIODIC CELL BASIS 1  51.05 0 0
Info: PERIODIC CELL BASIS 2  0 51.579 0
Info: PERIODIC CELL BASIS 3  0 0 50
Info: PERIODIC CELL CENTER   0 0 0
Info: FIRST LDB TIMESTEP     100
Info: LAST LDB TIMESTEP     -1
Info: HOM BACKGROUND SCALING 1
Info: MIN ATOMS PER PATCH    40
Info: INITIAL TEMPERATURE    200
Info: CENTER OF MASS MOVING INITIALLY? NO
Info: DIELECTRIC             1
Info: EXCLUDE                SCALED ONE-FOUR
Info: 1-4 ELECTROSTATICS SCALED BY 1
Info: MODIFIED 1-4 VDW PARAMETERS WILL BE USED
Info: DCD FILENAME           ./output/cnt_abf.dcd
Info: DCD FREQUENCY          1000
Info: DCD FIRST STEP         1000
Info: DCD FILE WILL CONTAIN UNIT CELL DATA
Info: NO EXTENDED SYSTEM TRAJECTORY OUTPUT
Info: NO VELOCITY DCD OUTPUT
Info: NO FORCE DCD OUTPUT
Info: OUTPUT FILENAME        ./output/cntabf
Info: BINARY OUTPUT FILES WILL BE USED
Info: RESTART FILENAME       ./restart/cntabf
Info: RESTART FREQUENCY      10000
Info: BINARY RESTART FILES WILL BE USED
Info: SWITCHING ACTIVE
Info: SWITCHING ON           10
Info: SWITCHING OFF          12
Info: PAIRLIST DISTANCE      13.5
Info: PAIRLIST SHRINK RATE   0.01
Info: PAIRLIST GROW RATE     0.01
Info: PAIRLIST TRIGGER       0.3
Info: PAIRLISTS PER CYCLE    2
Info: PAIRLISTS ENABLED
Info: MARGIN                 0
Info: HYDROGEN GROUP CUTOFF  2.5
Info: PATCH DIMENSION        16
Info: ENERGY OUTPUT STEPS    1000
Info: CROSSTERM ENERGY INCLUDED IN DIHEDRAL
Info: TIMING OUTPUT STEPS    1000
Info: FIXED ATOMS ACTIVE
Info: HARMONIC CONSTRAINTS ACTIVE
Info: HARMONIC CONS EXP      4
Info: SELECTED CARTESIAN COMPONENTS OF HARMONIC RESTRAINTS ACTIVE
Info: RESTRAINING Z-COMPONENTS OF CARTESIAN COORDINATES!
Info: COLLECTIVE VARIABLES CALCULATION REQUESTED
Info: COLLECTIVE VARIABLES CONFIGURATION   colvars_config_custom.tcl
Info: LANGEVIN DYNAMICS ACTIVE
Info: LANGEVIN TEMPERATURE   200
Info: LANGEVIN USING BBK INTEGRATOR
Info: LANGEVIN DAMPING COEFFICIENT IS 0.5 INVERSE PS
Info: LANGEVIN DYNAMICS APPLIED TO HYDROGENS
Info: VELOCITY REASSIGNMENT FREQ  10000
Info: VELOCITY REASSIGNMENT TEMP  200
Info: USING VERLET I (r-RESPA) MTS SCHEME.
Info: C1 SPLITTING OF LONG RANGE ELECTROSTATICS
Info: PLACING ATOMS IN PATCHES BY HYDROGEN GROUPS
Info: RANDOM NUMBER SEED     1516377985
Info: USE HYDROGEN BONDS?    NO
Info: COORDINATE PDB         cnt_chains.pdb
Info: STRUCTURE FILE         cnt_chains.psf
Info: PARAMETER file: CHARMM format!
Info: PARAMETERS             cnt_test.prm
Info: USING ARITHMETIC MEAN TO COMBINE L-J SIGMA PARAMETERS
Info: SUMMARY OF PARAMETERS:
Info: 3 BONDS
Info: 0 ANGLES
Info: 0 DIHEDRAL
Info: 0 IMPROPER
Info: 0 CROSSTERM
Info: 3 VDW
Info: 0 VDW_PAIRS
Info: 0 NBTHOLE_PAIRS
Info: STRUCTURE SUMMARY:
Info: 1033 ATOMS
Info: 1467 BONDS
Info: 0 ANGLES
Info: 0 DIHEDRALS
Info: 0 IMPROPERS
Info: 0 CROSSTERMS
Info: 0 EXCLUSIONS
Info: 25 CONSTRAINTS
Info: 1008 FIXED ATOMS
Info: 75 DEGREES OF FREEDOM
Info: 1033 HYDROGEN GROUPS
Info: 1 ATOMS IN LARGEST HYDROGEN GROUP
Info: 1033 MIGRATION GROUPS
Info: 1 ATOMS IN LARGEST MIGRATION GROUP
Info: 1008 HYDROGEN GROUPS WITH ALL ATOMS FIXED
Info: TOTAL MASS = 12506.8 amu
Info: TOTAL CHARGE = 0 e
Info: MASS DENSITY = 0.157749 g/cm^3
Info: ATOM DENSITY = 0.00784624 atoms/A^3
Info: ADDED 8474 IMPLICIT EXCLUSIONS
Info: NONBONDED TABLE R-SQUARED SPACING: 0.0625
Info: NONBONDED TABLE SIZE: 769 POINTS
Info: REMOVING COM VELOCITY 0.142933 -0.0967366 -0.0978024
Info: Updated CUDA force table with 4096 elements.
Info: Updated CUDA LJ table with 3 x 3 elements.
Info: Found 1 unique exclusion lists needing 4 bytes
Info: Built with CUDA version 8000
Info: NAMD Git-2017-12-06 for Linux-x86_64-multicore-CUDA
Info: Please visit http://www.ks.uiuc.edu/Research/namd/
Info: for updates, documentation, and support information.
Info: Please cite Phillips et al., J. Comp. Chem. 26:1781-1802 (2005)
Info: in all publications reporting results obtained with NAMD.
Info: Based on Charm++/Converse 60800 for multicore-linux64-iccstatic
Info: Built Wed Dec 6 02:09:16 CST 2017 by jim on ganymede.ks.uiuc.edu
Info: 1 NAMD  Git-2017-12-06  Linux-x86_64-multicore-CUDA  4    coe.psc.edu  junwoony
Info: Running on 4 processors, 1 nodes, 1 physical nodes.
Info: CPU topology information available.
Info: Charm++/Converse parallel runtime startup completed at 3.47598 s
Info: 12.7109 MB of memory in use based on /proc/self/stat
Info: Configuration file is cnt_equilibrate.namd
Info: Working in the current directory /home/junwoony/surfactant_sim/graphene_test
ETITLE: TS BOND ANGLE DIHED IMPRP ELECT VDW BOUNDARY MISC KINETIC TOTAL TEMP POTENTIAL TOTAL3 TEMPAVG PRESSURE GPRESSURE VOLUME PRESSAVG GPRESSAVG
ENERGY: 0 0.0000 0.0000 0.0000 0.0000 0.0000 -89.9842 0.0000 0.0000 17.7024 -72.2818 237.5528 -89.9842 -72.2780 237.5528 153.7250 153.7250 131655.3975 153.7250 153.7250
ENERGY: 1000 0.0000 0.0000 0.0000 0.0000 0.0000 -108.3578 5.0459 0.2681 15.9055 -87.1382 213.4404 -103.0437 -86.9487 379.7868 -50.6007 -50.6007 131655.3975 2.5158 2.5158
ENERGY: 2000 0.0000 0.0000 0.0000 0.0000 0.0000 -118.7614 0.5316 0.0940 23.2108 -94.9250 311.4722 -118.1358 -94.8555 260.1181 39.7892 39.7892 131655.3975 -4.9301 -4.9301
TCL: Suspending until startup complete.
Info: SIMULATION PARAMETERS:
Info: TIMESTEP               1
Info: NUMBER OF STEPS        100000
Info: STEPS PER CYCLE        20
Info: PERIODIC CELL BASIS 1  51.05 0 0
Info: PERIODIC CELL BASIS 2  0 51.579 0
Info: PERIODIC CELL BASIS 3  0 0 20
Info: PERIODIC CELL CENTER   0 0 0
Info: WRAPPING ALL CLUSTERS AROUND PERIODIC BOUNDARIES ON OUTPUT.
Info: FIRST LDB TIMESTEP     100
Info: LAST LDB TIMESTEP     -1
Info: HOM BACKGROUND SCALING 1
Info: MIN ATOMS PER PATCH    40
Info: INITIAL TEMPERATURE    1
Info: CENTER OF MASS MOVING INITIALLY? NO
Info: DIELECTRIC             1
Info: EXCLUDE                SCALED ONE-FOUR
Info: 1-4 ELECTROSTATICS SCALED BY 1
Info: MODIFIED 1-4 VDW PARAMETERS WILL BE USED
Info: DCD FILENAME           ./equilibration/cntequil.dcd
Info: DCD FREQUENCY          1000
Info: DCD FIRST STEP         1000
Info: DCD FILE WILL CONTAIN UNIT CELL DATA
Info: NO EXTENDED SYSTEM TRAJECTORY OUTPUT
Info: NO VELOCITY DCD OUTPUT
Info: NO FORCE DCD OUTPUT
Info: OUTPUT FILENAME        ./equilibration/cntequil
Info: BINARY OUTPUT FILES WILL BE USED
Info: NO RESTART FILE
Info: SWITCHING ACTIVE
Info: SWITCHING ON           10
Info: SWITCHING OFF          12
Info: PAIRLIST DISTANCE      13.5
Info: PAIRLIST SHRINK RATE   0.01
Info: PAIRLIST GROW RATE     0.01
Info: PAIRLIST TRIGGER       0.3
Info: PAIRLISTS PER CYCLE    2
Info: PAIRLISTS ENABLED
Info: MARGIN                 0
Info: HYDROGEN GROUP CUTOFF  2.5
Info: PATCH DIMENSION        16
Info: ENERGY OUTPUT STEPS    1000
Info: CROSSTERM ENERGY INCLUDED IN DIHEDRAL
Info: TIMING OUTPUT STEPS    1000
Info: FIXED ATOMS ACTIVE
Info: LANGEVIN DYNAMICS ACTIVE
Info: LANGEVIN TEMPERATURE   30
Info: LANGEVIN USING BBK INTEGRATOR
Info: LANGEVIN DAMPING COEFFICIENT IS 0.5 INVERSE PS
Info: LANGEVIN DYNAMICS APPLIED TO HYDROGENS
Info: VELOCITY REASSIGNMENT FREQ  5000
Info: VELOCITY REASSIGNMENT TEMP  30
Info: USING VERLET I (r-RESPA) MTS SCHEME.
Info: C1 SPLITTING OF LONG RANGE ELECTROSTATICS
Info: PLACING ATOMS IN PATCHES BY HYDROGEN GROUPS
Info: RANDOM NUMBER SEED     1516379083
Info: USE HYDROGEN BONDS?    NO
Info: COORDINATE PDB         cnt_chains.pdb
Info: STRUCTURE FILE         cnt_chains.psf
Info: PARAMETER file: CHARMM format!
Info: PARAMETERS             cnt_test.prm
Info: USING ARITHMETIC MEAN TO COMBINE L-J SIGMA PARAMETERS
Info: SUMMARY OF PARAMETERS:
Info: 3 BONDS
Info: 0 ANGLES
Info: 0 DIHEDRAL
Info: 0 IMPROPER
Info: 0 CROSSTERM
Info: 3 VDW
Info: 0 VDW_PAIRS
Info: 0 NBTHOLE_PAIRS
Info: STRUCTURE SUMMARY:
Info: 1033 ATOMS
Info: 1467 BONDS
Info: 0 ANGLES
Info: 0 DIHEDRALS
Info: 0 IMPROPERS
Info: 0 CROSSTERMS
Info: 0 EXCLUSIONS
Info: 1008 FIXED ATOMS
Info: 75 DEGREES OF FREEDOM
Info: 1033 HYDROGEN GROUPS
Info: 1 ATOMS IN LARGEST HYDROGEN GROUP
Info: 1033 MIGRATION GROUPS
Info: 1 ATOMS IN LARGEST MIGRATION GROUP
Info: 1008 HYDROGEN GROUPS WITH ALL ATOMS FIXED
Info: TOTAL MASS = 12506.8 amu
Info: TOTAL CHARGE = 0 e
Info: MASS DENSITY = 0.394372 g/cm^3
Info: ATOM DENSITY = 0.0196156 atoms/A^3
Info: ADDED 8474 IMPLICIT EXCLUSIONS
Info: NONBONDED TABLE R-SQUARED SPACING: 0.0625
Info: NONBONDED TABLE SIZE: 769 POINTS
Info: REMOVING COM VELOCITY -0.00907163 -0.00933548 0.00503802
Info: Updated CUDA force table with 4096 elements.
Info: Updated CUDA LJ table with 3 x 3 elements.
Info: Found 1 unique exclusion lists needing 4 bytes
ETITLE: TS BOND ANGLE DIHED IMPRP ELECT VDW BOUNDARY MISC KINETIC TOTAL TEMP POTENTIAL TOTAL3 TEMPAVG PRESSURE GPRESSURE VOLUME PRESSAVG GPRESSAVG
ENERGY: 0 0.0000 0.0000 0.0000 0.0000 0.0000 -89.9841 0.0000 0.0000 1.9406 -88.0436 26.0409 -89.9841 -88.0398 26.0409 370.4449 370.4449 52662.1590 370.4449 370.4449
ENERGY: 5000 0.0000 0.0000 0.0000 0.0000 0.0000 -123.9498 0.0000 0.0000 2.2909 -121.6589 30.7423 -123.9498 -122.5606 55.2221 -6.5417 -6.5417 52662.1590 0.9009 0.9009
ENERGY: 10000 0.0000 0.0000 0.0000 0.0000 0.0000 -125.4055 0.0000 0.0000 1.9749 -123.4306 26.5012 -125.4055 -123.6352 26.1738 -1.0766 -1.0766 52662.1590 -0.1464 -0.1464
ENERGY: 14000 0.0000 0.0000 0.0000 0.0000 0.0000 -125.1555 0.0000 0.0000 2.5430 -122.6125 34.1258 -125.1555 -122.5961 28.9413 5.5061 5.5061 52662.1590 -2.1360 -2.1360
ENERGY: 19000 0.0000 0.0000 0.0000 0.0000 0.0000 -124.0999 0.0000 0.0000 2.7080 -121.3919 36.3388 -124.0999 -121.3828 31.6589 -2.4117 -2.4117 52662.1590 -6.5798 -6.5798
ENERGY: 24000 0.0000 0.0000 0.0000 0.0000 0.0000 -124.9272 0.0000 0.0000 2.4488 -122.4784 32.8613 -124.9272 -122.4688 33.0174 -1.8459 -1.8459 52662.1590 -4.5351 -4.5351
