Info: SIMULATION PARAMETERS:
Info: TIMESTEP               2
Info: NUMBER OF STEPS        1500000
Info: STEPS PER CYCLE        20
Info: PERIODIC CELL BASIS 1  94.0638 0 0
Info: PERIODIC CELL BASIS 2  0 91.2259 0
Info: PERIODIC CELL BASIS 3  0 0 60.5017
Info: PERIODIC CELL CENTER   0 0 0
Info: WRAPPING WATERS AROUND PERIODIC BOUNDARIES ON OUTPUT.
Info: FIRST LDB TIMESTEP     100
Info: LAST LDB TIMESTEP     -1
Info: HOM BACKGROUND SCALING 1
Info: MIN ATOMS PER PATCH    40
Info: VELOCITY FILE          ./restart/cntabf_packing.vel
Info: CENTER OF MASS MOVING INITIALLY? NO
Info: DIELECTRIC             1
Info: EXCLUDE                SCALED ONE-FOUR
Info: 1-4 ELECTROSTATICS SCALED BY 1
Info: MODIFIED 1-4 VDW PARAMETERS WILL BE USED
Info: DCD FILENAME           ./output/cntabf_packing2.dcd
Info: DCD FREQUENCY          1000
Info: DCD FIRST STEP         1000
Info: DCD FILE WILL CONTAIN UNIT CELL DATA
Info: NO EXTENDED SYSTEM TRAJECTORY OUTPUT
Info: NO VELOCITY DCD OUTPUT
Info: NO FORCE DCD OUTPUT
Info: OUTPUT FILENAME        ./output/cntabf_packing2
Info: BINARY OUTPUT FILES WILL BE USED
Info: RESTART FILENAME       ./restart/cntabf_packing2
Info: RESTART FREQUENCY      1000
Info: BINARY RESTART FILES WILL BE USED
Info: SWITCHING ACTIVE
Info: SWITCHING ON           10
Info: SWITCHING OFF          12
Info: PAIRLIST DISTANCE      14.5
Info: PAIRLIST SHRINK RATE   0.01
Info: PAIRLIST GROW RATE     0.01
Info: PAIRLIST TRIGGER       0.3
Info: PAIRLISTS PER CYCLE    2
Info: PAIRLISTS ENABLED
Info: MARGIN                 10
Info: HYDROGEN GROUP CUTOFF  2.5
Info: PATCH DIMENSION        27
Info: ENERGY OUTPUT STEPS    1000
Info: CROSSTERM ENERGY INCLUDED IN DIHEDRAL
Info: TIMING OUTPUT STEPS    1000
Info: FIXED ATOMS ACTIVE
Info: HARMONIC CONSTRAINTS ACTIVE
Info: HARMONIC CONS EXP      2
Info: SELECTED CARTESIAN COMPONENTS OF HARMONIC RESTRAINTS ACTIVE
Info: RESTRAINING Z-COMPONENTS OF CARTESIAN COORDINATES!
Info: COLLECTIVE VARIABLES CALCULATION REQUESTED
Info: COLLECTIVE VARIABLES CONFIGURATION   colvars_subst3.tmp
Info: LANGEVIN DYNAMICS ACTIVE
Info: LANGEVIN TEMPERATURE   300
Info: LANGEVIN USING BBK INTEGRATOR
Info: LANGEVIN DAMPING COEFFICIENT IS 0.5 INVERSE PS
Info: LANGEVIN DYNAMICS APPLIED TO HYDROGENS
Info: VELOCITY REASSIGNMENT FREQ  100000
Info: VELOCITY REASSIGNMENT TEMP  300
Info: LANGEVIN PISTON PRESSURE CONTROL ACTIVE
Info:        TARGET PRESSURE IS 1.01325 BAR
Info:     OSCILLATION PERIOD IS 200 FS
Info:             DECAY TIME IS 100 FS
Info:     PISTON TEMPERATURE IS 300 K
Info:       PRESSURE CONTROL IS GROUP-BASED
Info:    INITIAL STRAIN RATE IS 1.89104e-05 1.89104e-05 1.89104e-05
Info:       CELL FLUCTUATION IS ISOTROPIC
Info: USING VERLET I (r-RESPA) MTS SCHEME.
Info: C1 SPLITTING OF LONG RANGE ELECTROSTATICS
Info: PLACING ATOMS IN PATCHES BY HYDROGEN GROUPS
Info: RIGID BONDS TO HYDROGEN : WATER
Info:         ERROR TOLERANCE : 1e-08
Info:          MAX ITERATIONS : 100
Info: RIGID WATER USING SETTLE ALGORITHM
Info: RANDOM NUMBER SEED     1548959074
Info: USE HYDROGEN BONDS?    NO
Info: COORDINATE PDB         SDS_graphene_wb.pdb
Info: STRUCTURE FILE         SDS_graphene_wb.psf
Info: PARAMETER file: CHARMM format!
Info: PARAMETERS             par_all27_prot_lipid.inp
Info: PARAMETERS             par_cntgraph.inp
Info: USING ARITHMETIC MEAN TO COMBINE L-J SIGMA PARAMETERS
Info: BINARY COORDINATES     ./restart/cntabf_packing.coor
Info: SUMMARY OF PARAMETERS:
Info: 181 BONDS
Info: 448 ANGLES
Info: 567 DIHEDRAL
Info: 47 IMPROPER
Info: 6 CROSSTERM
Info: 120 VDW
Info: 0 VDW_PAIRS
Info: 0 NBTHOLE_PAIRS
Info: STRUCTURE SUMMARY:
Info: 54867 ATOMS
Info: 40302 BONDS
Info: 31113 ANGLES
Info: 27396 DIHEDRALS
Info: 3801 IMPROPERS
Info: 0 CROSSTERMS
Info: 0 EXCLUSIONS
Info: 36 CONSTRAINTS
Info: 3936 FIXED ATOMS
Info: 49383 RIGID BONDS
Info: 0 RIGID BONDS BETWEEN FIXED ATOMS
Info: 103410 DEGREES OF FREEDOM
Info: 21045 HYDROGEN GROUPS
Info: 4 ATOMS IN LARGEST HYDROGEN GROUP
Info: 21045 MIGRATION GROUPS
Info: 4 ATOMS IN LARGEST MIGRATION GROUP
Info: 3936 HYDROGEN GROUPS WITH ALL ATOMS FIXED
Info: TOTAL MASS = 354207 amu
Info: TOTAL CHARGE = 4.29153e-06 e
Info: MASS DENSITY = 1.13294 g/cm^3
Info: ATOM DENSITY = 0.105682 atoms/A^3
Info: ADDED 92907 IMPLICIT EXCLUSIONS
Info: NONBONDED TABLE R-SQUARED SPACING: 0.0625
Info: NONBONDED TABLE SIZE: 769 POINTS
Info: REMOVING COM VELOCITY 0.00751249 -0.0316209 0.0239738
Info: Updated CUDA force table with 4096 elements.
Info: Updated CUDA LJ table with 120 x 120 elements.
Info: Found 18 unique exclusion lists needing 24 bytes
TCL: Original numsteps 1500000 will be ignored.
TCL: Running for 1500000 steps
ETITLE: TS BOND ANGLE DIHED IMPRP ELECT VDW BOUNDARY MISC KINETIC TOTAL TEMP POTENTIAL TOTAL3 TEMPAVG PRESSURE GPRESSURE VOLUME PRESSAVG GPRESSAVG
ENERGY: 0 484.3611 1395.2036 238.3355 0.0000 -194094.0511 14580.4784 29.2937 88.4447 30890.2675 -146387.6666 300.6419 -177277.9341 -146276.3962 300.6419 115.6617 134.4972 519168.5013 115.6617 134.4972
ENERGY: 300000 484.4922 1410.9970 223.8391 0.0000 -193457.9577 14219.6571 39.1773 58.4887 30853.5840 -146167.7223 300.2849 -177021.3063 -146060.9999 299.7968 -136.6239 -154.9006 522330.0153 0.1517 -0.4775
ENERGY: 600000 470.8082 1408.4465 239.6239 0.0000 -194239.2348 14614.7495 34.4613 87.3764 30888.1072 -146495.6617 300.6209 -177383.7690 -146362.3092 299.7685 54.4518 100.3065 519371.3455 -2.2006 -1.9472
ENERGY: 900000 494.9844 1379.7318 228.4622 0.0000 -193043.8448 14034.2699 47.1318 81.0958 30689.7192 -146088.4496 298.6901 -176778.1688 -146017.3888 300.6115 -5.8183 -9.3212 520105.3976 4.3053 4.2002
ENERGY: 1200000 477.8676 1452.4368 243.2807 0.0000 -193559.7955 14389.6309 51.5168 90.0894 30761.9631 -146093.0103 299.3932 -176854.9734 -146054.2134 300.0264 73.0916 97.4807 522266.2667 -2.4704 -2.4624
ENERGY: 1500000 512.0261 1411.3252 232.2184 0.0000 -193191.2742 14105.0185 49.7433 118.3984 30769.1682 -145993.3760 299.4633 -176762.5442 -145794.9474 299.9970 -191.8522 -145.1632 521181.3306 3.2583 3.2118
