Info: SIMULATION PARAMETERS:
Info: TIMESTEP               2
Info: NUMBER OF STEPS        1000000
Info: STEPS PER CYCLE        20
Info: PERIODIC CELL BASIS 1  115.05 0 0
Info: PERIODIC CELL BASIS 2  0 111.579 0
Info: PERIODIC CELL BASIS 3  0 0 74
Info: PERIODIC CELL CENTER   0 0 0
Info: WRAPPING WATERS AROUND PERIODIC BOUNDARIES ON OUTPUT.
Info: FIRST LDB TIMESTEP     100
Info: LAST LDB TIMESTEP     -1
Info: HOM BACKGROUND SCALING 1
Info: MIN ATOMS PER PATCH    40
Info: INITIAL TEMPERATURE    300
Info: CENTER OF MASS MOVING INITIALLY? NO
Info: DIELECTRIC             1
Info: EXCLUDE                SCALED ONE-FOUR
Info: 1-4 ELECTROSTATICS SCALED BY 1
Info: MODIFIED 1-4 VDW PARAMETERS WILL BE USED
Info: DCD FILENAME           ./output/cntabf_z.dcd
Info: DCD FREQUENCY          1000
Info: DCD FIRST STEP         1000
Info: DCD FILE WILL CONTAIN UNIT CELL DATA
Info: NO EXTENDED SYSTEM TRAJECTORY OUTPUT
Info: NO VELOCITY DCD OUTPUT
Info: NO FORCE DCD OUTPUT
Info: OUTPUT FILENAME        ./output/cntabf_z
Info: BINARY OUTPUT FILES WILL BE USED
Info: RESTART FILENAME       ./restart/cntabf_z
Info: RESTART FREQUENCY      1000
Info: BINARY RESTART FILES WILL BE USED
Info: SWITCHING ACTIVE
Info: SWITCHING ON           10
Info: SWITCHING OFF          12
Info: PAIRLIST DISTANCE      14.5
Info: PAIRLIST SHRINK RATE   0.01
Info: PAIRLIST GROW RATE     0.01
Info: PAIRLIST TRIGGER       0.3
Info: PAIRLISTS PER CYCLE    2
Info: PAIRLISTS ENABLED
Info: MARGIN                 10
Info: HYDROGEN GROUP CUTOFF  2.5
Info: PATCH DIMENSION        27
Info: ENERGY OUTPUT STEPS    1000
Info: CROSSTERM ENERGY INCLUDED IN DIHEDRAL
Info: TIMING OUTPUT STEPS    1000
Info: FIXED ATOMS ACTIVE
Info: COLLECTIVE VARIABLES CALCULATION REQUESTED
Info: COLLECTIVE VARIABLES CONFIGURATION   colvars_z.tmp
Info: LANGEVIN DYNAMICS ACTIVE
Info: LANGEVIN TEMPERATURE   300
Info: LANGEVIN USING BBK INTEGRATOR
Info: LANGEVIN DAMPING COEFFICIENT IS 0.5 INVERSE PS
Info: LANGEVIN DYNAMICS APPLIED TO HYDROGENS
Info: VELOCITY REASSIGNMENT FREQ  100000
Info: VELOCITY REASSIGNMENT TEMP  300
Info: LANGEVIN PISTON PRESSURE CONTROL ACTIVE
Info:        TARGET PRESSURE IS 1.01325 BAR
Info:     OSCILLATION PERIOD IS 200 FS
Info:             DECAY TIME IS 100 FS
Info:     PISTON TEMPERATURE IS 300 K
Info:       PRESSURE CONTROL IS GROUP-BASED
Info:    INITIAL STRAIN RATE IS 0 0 0
Info:       CELL FLUCTUATION IS ISOTROPIC
Info: USING VERLET I (r-RESPA) MTS SCHEME.
Info: C1 SPLITTING OF LONG RANGE ELECTROSTATICS
Info: PLACING ATOMS IN PATCHES BY HYDROGEN GROUPS
Info: RIGID BONDS TO HYDROGEN : WATER
Info:         ERROR TOLERANCE : 1e-08
Info:          MAX ITERATIONS : 100
Info: RIGID WATER USING SETTLE ALGORITHM
Info: RANDOM NUMBER SEED     1552934018
Info: USE HYDROGEN BONDS?    NO
Info: COORDINATE PDB         SDS_graphene_wb.pdb
Info: STRUCTURE FILE         SDS_graphene_wb.psf
Info: PARAMETER file: CHARMM format!
Info: PARAMETERS             par_all27_prot_lipid.inp
Info: PARAMETERS             par_cntgraph.inp
Info: USING ARITHMETIC MEAN TO COMBINE L-J SIGMA PARAMETERS
Info: SUMMARY OF PARAMETERS:
Info: 181 BONDS
Info: 448 ANGLES
Info: 567 DIHEDRAL
Info: 47 IMPROPER
Info: 6 CROSSTERM
Info: 120 VDW
Info: 0 VDW_PAIRS
Info: 0 NBTHOLE_PAIRS
Info: STRUCTURE SUMMARY:
Info: 55435 ATOMS
Info: 40249 BONDS
Info: 29039 ANGLES
Info: 23721 DIHEDRALS
Info: 3801 IMPROPERS
Info: 0 CROSSTERMS
Info: 0 EXCLUSIONS
Info: 3936 FIXED ATOMS
Info: 51456 RIGID BONDS
Info: 0 RIGID BONDS BETWEEN FIXED ATOMS
Info: 103041 DEGREES OF FREEDOM
Info: 21106 HYDROGEN GROUPS
Info: 4 ATOMS IN LARGEST HYDROGEN GROUP
Info: 21106 MIGRATION GROUPS
Info: 4 ATOMS IN LARGEST MIGRATION GROUP
Info: 3936 HYDROGEN GROUPS WITH ALL ATOMS FIXED
Info: TOTAL MASS = 356563 amu
Info: TOTAL CHARGE = 1.19209e-07 e
Info: MASS DENSITY = 0.623296 g/cm^3
Info: ATOM DENSITY = 0.0583557 atoms/A^3
Info: ADDED 87105 IMPLICIT EXCLUSIONS
Info: NONBONDED TABLE R-SQUARED SPACING: 0.0625
Info: NONBONDED TABLE SIZE: 769 POINTS
Info: REMOVING COM VELOCITY 0.027941 0.00312225 -0.00191691
Info: Updated CUDA force table with 4096 elements.
Info: Updated CUDA LJ table with 120 x 120 elements.
Info: Found 18 unique exclusion lists needing 24 bytes
TCL: Original numsteps 1000000 will be ignored.
TCL: Running for 1000000 steps
ETITLE: TS BOND ANGLE DIHED IMPRP ELECT VDW BOUNDARY MISC KINETIC TOTAL TEMP POTENTIAL TOTAL3 TEMPAVG PRESSURE GPRESSURE VOLUME PRESSAVG GPRESSAVG
ENERGY: 0 100.2020 38.2627 2.7031 0.0000 -168961.7377 13829.3721 0.0000 805.0846 30886.2536 -123299.8594 301.6793 -154186.1130 -123218.9496 301.6793 -6.3722 -56.2079 949950.1323 -6.3722 -56.2079
ENERGY: 200000 24.2825 36.7116 7.5723 0.0000 -197193.3878 15927.8906 0.0000 0.7356 30853.2002 -150342.9950 301.3565 -181196.1952 -150080.8312 298.9742 65.0061 88.3493 528175.1986 2.1127 1.9569
ENERGY: 400000 12.2376 41.0517 5.2968 0.0000 -197011.3477 15714.5141 0.0000 0.0391 30743.2908 -150494.9177 300.2829 -181238.2085 -150450.0816 300.2978 -141.8603 -132.9295 527691.6747 2.5356 2.7260
ENERGY: 600000 17.7935 37.4826 4.9811 0.0000 -196875.1847 15836.8771 0.0000 0.0521 30937.4821 -150040.5161 302.1797 -180977.9982 -149854.3905 300.0110 42.1849 34.1794 526901.4350 -6.2562 -5.9918
ENERGY: 800000 12.7758 45.5639 7.0398 0.0000 -196676.1865 15464.6249 0.0000 0.0320 30768.9255 -150377.2246 300.5333 -181146.1501 -150417.0000 299.9558 -264.2182 -270.9837 527114.3075 -0.9320 -1.0176
ENERGY: 1000000 11.6005 41.0843 6.7015 0.0000 -197043.3807 15912.2901 0.0000 27.5480 30596.9065 -150447.2499 298.8532 -181044.1564 -150431.4184 299.5291 -39.0750 -40.5629 525579.8831 -4.6266 -4.7703
